MatpowerDataProcesssed/d_case9.m
% 01/10/12 File data originated from Matpower data file
% 

Bus.con = [ ...
      1      345        1        0    1    1;
      2      345        1        0    1    1;
      3      345        1        0    1    1;
      4      345        1        0    1    1;
      5      345        1        0    1    1;
      6      345        1        0    1    1;
      7      345        1        0    1    1;
      8      345        1        0    1    1;
      9      345        1        0    1    1;
   ];

SW.con = [ ...
      1      100      345        1        0        3       -3      1.1      0.9        0 1 1  1;
   ];

PV.con = [ ...
   2      100      345     1.63        1        3       -3      1.1      0.9 1  1;
   3      100      345     0.85        1        3       -3      1.1      0.9 1  1;
   ];

PQ.con = [ ...
   5 100      345      0.9      0.3      1.1      0.9 0 1;
   7 100      345        1     0.35      1.1      0.9 0 1;
   9 100      345     1.25      0.5      1.1      0.9 0 1;
   4 100      345        0        0      1.1      0.9 0 1;
   6 100      345        0        0      1.1      0.9 0 1;
   8 100      345        0        0      1.1      0.9 0 1;
   ];

Line.con = [ ...
   1    4 100      345 60 0         0        0   0.0576        0        0        0      2.5      2.5      2.5  1;
   4    5 100      345 60 0         0    0.017    0.092    0.158        0        0      2.5      2.5      2.5  1;
   5    6 100      345 60 0         0    0.039     0.17    0.358        0        0      1.5      1.5      1.5  1;
   3    6 100      345 60 0         0        0   0.0586        0        0        0        3        3        3  1;
   6    7 100      345 60 0         0   0.0119   0.1008    0.209        0        0      1.5      1.5      1.5  1;
   7    8 100      345 60 0         0   0.0085    0.072    0.149        0        0      2.5      2.5      2.5  1;
   8    2 100      345 60 0         0        0   0.0625        0        0        0      2.5      2.5      2.5  1;
   8    9 100      345 60 0         0    0.032    0.161    0.306        0        0      2.5      2.5      2.5  1;
   9    4 100      345 60 0         0     0.01    0.085    0.176        0        0      2.5      2.5      2.5  1;
   ];

Supply.con = [ ...
   1       100        0      2.5      0.1        0      150        5     0.11        0        0        0  1 0 1;
   2       100        0        3      0.1        0      600      1.2    0.085        0        0        0  1 0 1;
   3       100        0      2.7      0.1        0      335        1   0.1225        0        0        0  1 0 1;
   ];

Bus.names = {...
      'Bus 1'; 'Bus 2'; 'Bus 3'; 'Bus 4'; 'Bus 5'; 
      'Bus 6'; 'Bus 7'; 'Bus 8'; 'Bus 9'};

